O6U_neutral_hydrogen_complete_3D
     RDKit          3D

 76 78  0  0  1  0  0  0  0  0999 V2000
   -3.4950    0.7110   -2.0280 C   0  0  0  0  0  0  0  0  0  0  0  0
   -5.4650    0.9360   -0.0160 C   0  0  0  0  0  0  0  0  0  0  0  0
    4.3200    0.0770   -0.1540 C   0  0  0  0  0  0  0  0  0  0  0  0
    5.6440   -0.0850    0.5960 C   0  0  0  0  0  0  0  0  0  0  0  0
    7.9520    0.6440    0.6740 C   0  0  0  0  0  0  0  0  0  0  0  0
    3.8690    1.5380   -0.0820 C   0  0  0  0  0  0  0  0  0  0  0  0
    4.5100   -0.3270   -1.6170 C   0  0  0  0  0  0  0  0  0  0  0  0
   -0.7530   -1.7380   -0.0830 C   0  0  0  0  0  0  0  0  0  0  0  0
   -3.6750   -4.2020   -0.2430 C   0  0  0  0  0  0  0  0  0  0  0  0
    8.5130    3.0040    0.0750 C   0  0  0  0  0  0  0  0  0  0  0  0
   -3.4100   -0.2260   -0.8180 C   0  0  1  0  0  0  0  0  0  0  0  0
   -4.8150   -0.4030   -0.2460 C   0  0  0  0  0  0  0  0  0  0  0  0
   -3.8170    2.1170   -1.5270 C   0  0  0  0  0  0  0  0  0  0  0  0
   -2.1870   -2.1990   -0.1290 C   0  0  2  0  0  0  0  0  0  0  0  0
   -5.0120    2.0920   -0.6100 C   0  0  0  0  0  0  0  0  0  0  0  0
    8.9870    1.5510    0.0040 C   0  0  0  0  0  0  0  0  0  0  0  0
   -2.2290   -3.7140   -0.3410 C   0  0  0  0  0  0  0  0  0  0  0  0
   -6.5670    0.9840    0.8340 C   0  0  0  0  0  0  0  0  0  0  0  0
   -5.6630    3.2940   -0.3630 C   0  0  0  0  0  0  0  0  0  0  0  0
    1.9950   -0.9020    0.0650 C   0  0  0  0  0  0  0  0  0  0  0  0
   10.3280    1.4150    0.7280 C   0  0  0  0  0  0  0  0  0  0  0  0
    9.1530    1.1390   -1.4600 C   0  0  0  0  0  0  0  0  0  0  0  0
    1.4170   -1.7920    0.9040 C   0  0  0  0  0  0  0  0  0  0  0  0
    3.4780   -1.5940    1.5230 C   0  0  0  0  0  0  0  0  0  0  0  0
   -7.2110    2.1800    1.0810 C   0  0  0  0  0  0  0  0  0  0  0  0
   -6.7580    3.3410    0.4780 C   0  0  0  0  0  0  0  0  0  0  0  0
   -3.7150   -5.7190   -0.4400 C   0  0  0  0  0  0  0  0  0  0  0  0
   -7.0100   -0.1500    1.4210 F   0  0  0  0  0  0  0  0  0  0  0  0
   -7.3830    4.5160    0.7120 F   0  0  0  0  0  0  0  0  0  0  0  0
   -2.8800   -1.5300   -1.2380 N   0  0  0  0  0  0  0  0  0  0  0  0
    3.3030   -0.7790    0.4620 N   0  0  0  0  0  0  0  0  0  0  0  0
    6.6640    0.7740   -0.0210 N   0  0  0  0  0  0  0  0  0  0  0  0
    0.0800   -2.2210    0.8600 N   0  0  0  0  0  0  0  0  0  0  0  0
    2.3480   -2.1920    1.7870 N   0  0  0  0  0  0  0  0  0  0  0  0
   -0.3480   -0.9310   -0.8930 O   0  0  0  0  0  0  0  0  0  0  0  0
   -2.5400    0.7190   -2.5540 H   0  0  0  0  0  0  0  0  0  0  0  0
   -4.2820    0.3720   -2.7020 H   0  0  0  0  0  0  0  0  0  0  0  0
    5.5090    0.2030    1.6380 H   0  0  0  0  0  0  0  0  0  0  0  0
    5.9660   -1.1250    0.5450 H   0  0  0  0  0  0  0  0  0  0  0  0
    8.2890   -0.3910    0.6230 H   0  0  0  0  0  0  0  0  0  0  0  0
    7.8330    0.9370    1.7170 H   0  0  0  0  0  0  0  0  0  0  0  0
    3.7340    1.8260    0.9610 H   0  0  0  0  0  0  0  0  0  0  0  0
    4.6260    2.1740   -0.5400 H   0  0  0  0  0  0  0  0  0  0  0  0
    2.9260    1.6530   -0.6160 H   0  0  0  0  0  0  0  0  0  0  0  0
    3.5660   -0.2110   -2.1510 H   0  0  0  0  0  0  0  0  0  0  0  0
    5.2660    0.3100   -2.0750 H   0  0  0  0  0  0  0  0  0  0  0  0
    4.8310   -1.3670   -1.6680 H   0  0  0  0  0  0  0  0  0  0  0  0
   -4.0780   -3.9520    0.7380 H   0  0  0  0  0  0  0  0  0  0  0  0
   -4.2740   -3.7200   -1.0150 H   0  0  0  0  0  0  0  0  0  0  0  0
    8.3940    3.2970    1.1180 H   0  0  0  0  0  0  0  0  0  0  0  0
    9.2500    3.6500   -0.4020 H   0  0  0  0  0  0  0  0  0  0  0  0
    7.5580    3.1000   -0.4410 H   0  0  0  0  0  0  0  0  0  0  0  0
   -2.7570    0.2090   -0.0620 H   0  0  0  0  0  0  0  0  0  0  0  0
   -4.7540   -0.9400    0.7000 H   0  0  0  0  0  0  0  0  0  0  0  0
   -5.4190   -0.9790   -0.9480 H   0  0  0  0  0  0  0  0  0  0  0  0
   -2.9570    2.5120   -0.9860 H   0  0  0  0  0  0  0  0  0  0  0  0
   -4.0320    2.7620   -2.3790 H   0  0  0  0  0  0  0  0  0  0  0  0
   -2.6790   -1.9490    0.8100 H   0  0  0  0  0  0  0  0  0  0  0  0
   -1.6270   -4.2040    0.4240 H   0  0  0  0  0  0  0  0  0  0  0  0
   -1.8300   -3.9540   -1.3260 H   0  0  0  0  0  0  0  0  0  0  0  0
   -5.3100    4.2000   -0.8330 H   0  0  0  0  0  0  0  0  0  0  0  0
    1.5200   -0.3910   -0.7590 H   0  0  0  0  0  0  0  0  0  0  0  0
   10.6650    0.3800    0.6780 H   0  0  0  0  0  0  0  0  0  0  0  0
   11.0650    2.0610    0.2510 H   0  0  0  0  0  0  0  0  0  0  0  0
   10.2090    1.7080    1.7710 H   0  0  0  0  0  0  0  0  0  0  0  0
    8.1980    1.2360   -1.9760 H   0  0  0  0  0  0  0  0  0  0  0  0
    9.8910    1.7850   -1.9370 H   0  0  0  0  0  0  0  0  0  0  0  0
    9.4910    0.1040   -1.5100 H   0  0  0  0  0  0  0  0  0  0  0  0
    4.4000   -1.7240    2.0700 H   0  0  0  0  0  0  0  0  0  0  0  0
   -8.0660    2.2100    1.7400 H   0  0  0  0  0  0  0  0  0  0  0  0
   -3.3130   -5.9690   -1.4210 H   0  0  0  0  0  0  0  0  0  0  0  0
   -3.1160   -6.2010    0.3330 H   0  0  0  0  0  0  0  0  0  0  0  0
   -4.7460   -6.0670   -0.3700 H   0  0  0  0  0  0  0  0  0  0  0  0
   -3.6120   -2.1150   -1.6120 H   0  0  0  0  0  0  0  0  0  0  0  0
    6.7620    0.5700   -1.0050 H   0  0  0  0  0  0  0  0  0  0  0  0
   -0.2430   -2.8660    1.5090 H   0  0  0  0  0  0  0  0  0  0  0  0
  1 13  1  0
  1 36  1  0
  1 37  1  0
  2 15  1  0
  3 31  1  0
  4  3  1  0
  4 32  1  0
  4 38  1  0
  4 39  1  0
  5 16  1  0
  5 40  1  0
  5 41  1  0
  6  3  1  0
  6 42  1  0
  6 43  1  0
  6 44  1  0
  7  3  1  0
  7 45  1  0
  7 46  1  0
  7 47  1  0
  8 14  1  0
  9 27  1  0
  9 17  1  0
  9 48  1  0
  9 49  1  0
 10 50  1  0
 10 51  1  0
 10 52  1  0
 11  1  1  0
 11 30  1  0
 11 12  1  0
 11 53  1  1
 12  2  1  0
 12 54  1  0
 12 55  1  0
 13 56  1  0
 13 57  1  0
 14 30  1  0
 14 17  1  0
 14 58  1  1
 15 19  2  0
 15 13  1  0
 16 10  1  0
 16 21  1  0
 17 59  1  0
 17 60  1  0
 18 25  1  0
 18  2  2  0
 19 61  1  0
 20 23  2  0
 20 62  1  0
 21 63  1  0
 21 64  1  0
 21 65  1  0
 22 16  1  0
 22 66  1  0
 22 67  1  0
 22 68  1  0
 23 33  1  0
 24 34  2  0
 24 69  1  0
 25 26  2  0
 25 70  1  0
 26 29  1  0
 26 19  1  0
 27 71  1  0
 27 72  1  0
 27 73  1  0
 28 18  1  0
 30 74  1  0
 31 24  1  0
 31 20  1  0
 32  5  1  0
 32 75  1  0
 33  8  1  0
 33 76  1  0
 34 23  1  0
 35  8  2  0
M  END
>  <SOURCE_COMPONENT>  (1) 
RCSB_O6U

>  <SOURCE_SDF_SHA256>  (1) 
985ac8899eb97efff73a57682da4794fbe55acf06be25717f9d885d64cb5962a

$$$$
