@<TRIPOS>MOLECULE
O6U
 76 78 0 0 0
SMALL
GASTEIGER

@<TRIPOS>ATOM
1 C10 -3.4950 0.7110 -2.0280 C.3 1 O6U -0.0332
2 C13 -5.4650 0.9360 -0.0160 C.ar 1 O6U -0.0074
3 C15 4.3200 0.0770 -0.1540 C.3 1 O6U 0.0533
4 C17 5.6440 -0.0850 0.5960 C.3 1 O6U 0.0191
5 C20 7.9520 0.6440 0.6740 C.3 1 O6U 0.0009
6 C21 3.8690 1.5380 -0.0820 C.3 1 O6U -0.0404
7 C22 4.5100 -0.3270 -1.6170 C.3 1 O6U -0.0404
8 C24 -0.7530 -1.7380 -0.0830 C.2 1 O6U 0.2353
9 C26 -3.6750 -4.2020 -0.2430 C.3 1 O6U -0.0540
10 C28 8.5130 3.0040 0.0750 C.3 1 O6U -0.0589
11 C09 -3.4100 -0.2260 -0.8180 C.3 1 O6U 0.0127
12 C11 -4.8150 -0.4030 -0.2460 C.3 1 O6U -0.0092
13 C12 -3.8170 2.1170 -1.5270 C.3 1 O6U -0.0258
14 C14 -2.1870 -2.1990 -0.1290 C.3 1 O6U 0.0853
15 C16 -5.0120 2.0920 -0.6100 C.ar 1 O6U -0.0387
16 C18 8.9870 1.5510 0.0040 C.3 1 O6U -0.0252
17 C19 -2.2290 -3.7140 -0.3410 C.3 1 O6U -0.0293
18 C23 -6.5670 0.9840 0.8340 C.ar 1 O6U 0.1296
19 C25 -5.6630 3.2940 -0.3630 C.ar 1 O6U -0.0228
20 C27 1.9950 -0.9020 0.0650 C.ar 1 O6U 0.0467
21 C29 10.3280 1.4150 0.7280 C.3 1 O6U -0.0589
22 C30 9.1530 1.1390 -1.4600 C.3 1 O6U -0.0589
23 C31 1.4170 -1.7920 0.9040 C.ar 1 O6U 0.1429
24 C32 3.4780 -1.5940 1.5230 C.ar 1 O6U 0.0986
25 C33 -7.2110 2.1800 1.0810 C.ar 1 O6U 0.0091
26 C34 -6.7580 3.3410 0.4780 C.ar 1 O6U 0.1264
27 C35 -3.7150 -5.7190 -0.4400 C.3 1 O6U -0.0652
28 F01 -7.0100 -0.1500 1.4210 F 1 O6U -0.2051
29 F02 -7.3830 4.5160 0.7120 F 1 O6U -0.2054
30 N04 -2.8800 -1.5300 -1.2380 N.3 1 O6U -0.3026
31 N05 3.3030 -0.7790 0.4620 N.ar 1 O6U -0.3282
32 N06 6.6640 0.7740 -0.0210 N.3 1 O6U -0.3133
33 N07 0.0800 -2.2210 0.8600 N.am 1 O6U -0.2679
34 N08 2.3480 -2.1920 1.7870 N.ar 1 O6U -0.2209
35 O03 -0.3480 -0.9310 -0.8930 O.2 1 O6U -0.2737
36 H1 -2.5400 0.7190 -2.5540 H 1 O6U 0.0283
37 H2 -4.2820 0.3720 -2.7020 H 1 O6U 0.0283
38 H3 5.5090 0.2030 1.6380 H 1 O6U 0.0447
39 H4 5.9660 -1.1250 0.5450 H 1 O6U 0.0447
40 H5 8.2890 -0.3910 0.6230 H 1 O6U 0.0429
41 H6 7.8330 0.9370 1.7170 H 1 O6U 0.0429
42 H7 3.7340 1.8260 0.9610 H 1 O6U 0.0253
43 H8 4.6260 2.1740 -0.5400 H 1 O6U 0.0253
44 H9 2.9260 1.6530 -0.6160 H 1 O6U 0.0253
45 H10 3.5660 -0.2110 -2.1510 H 1 O6U 0.0253
46 H11 5.2660 0.3100 -2.0750 H 1 O6U 0.0253
47 H12 4.8310 -1.3670 -1.6680 H 1 O6U 0.0253
48 H13 -4.0780 -3.9520 0.7380 H 1 O6U 0.0263
49 H14 -4.2740 -3.7200 -1.0150 H 1 O6U 0.0263
50 H15 8.3940 3.2970 1.1180 H 1 O6U 0.0235
51 H16 9.2500 3.6500 -0.4020 H 1 O6U 0.0235
52 H17 7.5580 3.1000 -0.4410 H 1 O6U 0.0235
53 H18 -2.7570 0.2090 -0.0620 H 1 O6U 0.0464
54 H19 -4.7540 -0.9400 0.7000 H 1 O6U 0.0329
55 H20 -5.4190 -0.9790 -0.9480 H 1 O6U 0.0329
56 H21 -2.9570 2.5120 -0.9860 H 1 O6U 0.0314
57 H22 -4.0320 2.7620 -2.3790 H 1 O6U 0.0314
58 H23 -2.6790 -1.9490 0.8100 H 1 O6U 0.0556
59 H24 -1.6270 -4.2040 0.4240 H 1 O6U 0.0285
60 H25 -1.8300 -3.9540 -1.3260 H 1 O6U 0.0285
61 H26 -5.3100 4.2000 -0.8330 H 1 O6U 0.0649
62 H27 1.5200 -0.3910 -0.7590 H 1 O6U 0.0844
63 H28 10.6650 0.3800 0.6780 H 1 O6U 0.0235
64 H29 11.0650 2.0610 0.2510 H 1 O6U 0.0235
65 H30 10.2090 1.7080 1.7710 H 1 O6U 0.0235
66 H31 8.1980 1.2360 -1.9760 H 1 O6U 0.0235
67 H32 9.8910 1.7850 -1.9370 H 1 O6U 0.0235
68 H33 9.4910 0.1040 -1.5100 H 1 O6U 0.0235
69 H34 4.4000 -1.7240 2.0700 H 1 O6U 0.1029
70 H35 -8.0660 2.2100 1.7400 H 1 O6U 0.0675
71 H36 -3.3130 -5.9690 -1.4210 H 1 O6U 0.0230
72 H37 -3.1160 -6.2010 0.3330 H 1 O6U 0.0230
73 H38 -4.7460 -6.0670 -0.3700 H 1 O6U 0.0230
74 H39 -3.6120 -2.1150 -1.6120 H 1 O6U 0.1229
75 H41 6.7620 0.5700 -1.0050 H 1 O6U 0.1220
76 H43 -0.2430 -2.8660 1.5090 H 1 O6U 0.1563
@<TRIPOS>BOND
     1     1    13    1
     2     1    36    1
     3     1    37    1
     4     2    15   ar
     5     3    31    1
     6     4     3    1
     7     4    32    1
     8     4    38    1
     9     4    39    1
    10     5    16    1
    11     5    40    1
    12     5    41    1
    13     6     3    1
    14     6    42    1
    15     6    43    1
    16     6    44    1
    17     7     3    1
    18     7    45    1
    19     7    46    1
    20     7    47    1
    21     8    14    1
    22     9    27    1
    23     9    17    1
    24     9    48    1
    25     9    49    1
    26    10    50    1
    27    10    51    1
    28    10    52    1
    29    11     1    1
    30    11    30    1
    31    11    12    1
    32    11    53    1
    33    12     2    1
    34    12    54    1
    35    12    55    1
    36    13    56    1
    37    13    57    1
    38    14    30    1
    39    14    17    1
    40    14    58    1
    41    15    19   ar
    42    15    13    1
    43    16    10    1
    44    16    21    1
    45    17    59    1
    46    17    60    1
    47    18    25   ar
    48    18     2   ar
    49    19    61    1
    50    20    23   ar
    51    20    62    1
    52    21    63    1
    53    21    64    1
    54    21    65    1
    55    22    16    1
    56    22    66    1
    57    22    67    1
    58    22    68    1
    59    23    33    1
    60    24    34   ar
    61    24    69    1
    62    25    26   ar
    63    25    70    1
    64    26    29    1
    65    26    19   ar
    66    27    71    1
    67    27    72    1
    68    27    73    1
    69    28    18    1
    70    30    74    1
    71    31    24   ar
    72    31    20   ar
    73    32     5    1
    74    32    75    1
    75    33     8   am
    76    33    76    1
    77    34    23   ar
    78    35     8    2
